Version 4
SHEET 1 880 680
WIRE 0 -128 -80 -128
WIRE 144 -128 80 -128
WIRE 208 -128 144 -128
WIRE 304 -128 288 -128
WIRE -80 -80 -80 -128
WIRE -256 -16 -256 -48
WIRE 144 32 144 -128
WIRE 208 32 144 32
WIRE 304 48 304 -128
WIRE 304 48 272 48
WIRE 368 48 304 48
WIRE 208 64 -112 64
WIRE -256 96 -256 64
WIRE -256 96 -288 96
WIRE -288 112 -288 96
WIRE -256 128 -256 96
WIRE -112 128 -112 64
WIRE -256 240 -256 208
WIRE -112 240 -112 208
FLAG -288 112 0
FLAG -256 -48 +15V
FLAG -256 240 -15V
FLAG 240 16 +15V
FLAG 240 80 -15V
FLAG -112 240 0
FLAG 368 48 V2
FLAG -80 -80 0
SYMBOL voltage -256 -32 R0
WINDOW 123 0 0 Left 0
WINDOW 39 0 0 Left 0
SYMATTR InstName V1
SYMATTR Value 15
SYMBOL voltage -256 112 R0
WINDOW 123 0 0 Left 0
WINDOW 39 0 0 Left 0
SYMATTR InstName V2
SYMATTR Value 15
SYMBOL res 304 -144 R90
WINDOW 0 0 56 VBottom 2
WINDOW 3 32 56 VTop 2
SYMATTR InstName R5
SYMATTR Value 99k
SYMBOL voltage -112 112 R0
WINDOW 123 24 124 Left 2
WINDOW 39 0 0 Left 0
SYMATTR Value2 AC 1 0
SYMATTR InstName V3
SYMATTR Value 0
SYMBOL OpAmps\\opamp2 240 -16 R0
SYMATTR InstName U2
SYMATTR Value UA741
SYMBOL res 96 -144 R90
WINDOW 0 0 56 VBottom 2
WINDOW 3 32 56 VTop 2
SYMATTR InstName R1
SYMATTR Value 1k
TEXT -312 344 Left 2 !.ac dec 100 10 100Meg
TEXT -312 384 Left 2 !.include UA741.301
