Version 4
SHEET 1 880 680
WIRE -256 -16 -256 -48
WIRE 224 16 80 16
WIRE 432 16 368 16
WIRE 512 16 432 16
WIRE 432 48 432 16
WIRE 512 48 512 16
WIRE -256 96 -256 64
WIRE -256 96 -288 96
WIRE 80 96 80 16
WIRE -288 112 -288 96
WIRE -256 128 -256 96
WIRE 432 160 432 128
WIRE 512 160 512 112
WIRE 512 160 432 160
WIRE 80 208 80 176
WIRE 432 208 432 160
WIRE -256 240 -256 208
FLAG -288 112 0
FLAG -256 -48 +15V
FLAG -256 240 -15V
FLAG 80 208 0
FLAG 432 208 0
SYMBOL voltage -256 -32 R0
WINDOW 123 0 0 Left 0
WINDOW 39 0 0 Left 0
SYMATTR InstName V1
SYMATTR Value 15
SYMBOL voltage -256 112 R0
WINDOW 123 0 0 Left 0
WINDOW 39 0 0 Left 0
SYMATTR InstName V2
SYMATTR Value 15
SYMBOL voltage 80 80 R0
WINDOW 123 24 124 Left 2
WINDOW 39 0 0 Left 0
SYMATTR Value2 AC 1 0
SYMATTR InstName V3
SYMATTR Value 0
SYMBOL res 320 0 R90
WINDOW 0 0 56 VBottom 2
WINDOW 3 32 56 VTop 2
SYMATTR InstName R1
SYMATTR Value 1k
SYMBOL cap 368 0 R90
WINDOW 0 0 32 VBottom 2
WINDOW 3 32 32 VTop 2
SYMATTR InstName C1
SYMATTR Value 100n
SYMBOL res 416 32 R0
SYMATTR InstName R2
SYMATTR Value 1k
SYMBOL cap 496 48 R0
SYMATTR InstName C2
SYMATTR Value 100n
TEXT -312 344 Left 2 !.ac dec 100 10 100Meg
