Version 4
SHEET 1 944 680
WIRE 144 -144 112 -144
WIRE 288 -144 224 -144
WIRE 384 -144 288 -144
WIRE 464 -144 384 -144
WIRE 288 -112 288 -144
WIRE 384 -112 384 -144
WIRE 464 -112 464 -144
WIRE -32 -80 -80 -80
WIRE 112 -80 112 -144
WIRE 112 -80 48 -80
WIRE -256 -16 -256 -48
WIRE -80 -16 -80 -80
WIRE 112 16 112 -80
WIRE 144 16 112 16
WIRE 288 32 288 -48
WIRE 288 32 208 32
WIRE 304 32 288 32
WIRE 384 32 384 -48
WIRE 384 32 304 32
WIRE 464 32 464 -32
WIRE 464 32 384 32
WIRE 32 48 -64 48
WIRE 144 48 32 48
WIRE -256 96 -256 64
WIRE -256 96 -288 96
WIRE -288 112 -288 96
WIRE -64 112 -64 48
WIRE 864 112 784 112
WIRE -256 128 -256 96
WIRE 864 128 864 112
WIRE 880 128 880 112
WIRE 880 128 864 128
WIRE 784 160 784 112
WIRE 880 160 880 128
WIRE 32 176 32 48
WIRE 160 176 32 176
WIRE 224 176 160 176
WIRE 288 176 224 176
WIRE 464 176 464 32
WIRE 464 176 432 176
WIRE 736 176 608 176
WIRE 160 192 160 176
WIRE 224 192 224 176
WIRE -256 240 -256 208
WIRE 880 272 880 240
WIRE 160 288 160 256
WIRE 224 288 224 272
WIRE 224 288 160 288
WIRE 224 304 224 288
WIRE 32 352 32 176
WIRE 608 352 608 176
WIRE 608 352 32 352
FLAG -288 112 0
FLAG -256 -48 +15V
FLAG -256 240 -15V
FLAG 176 0 +15V
FLAG 176 64 -15V
FLAG 304 32 V2
FLAG 224 304 0
FLAG -80 -16 0
FLAG 160 176 C2
FLAG -64 192 0
FLAG 880 272 0
FLAG 784 240 0
FLAG 736 224 0
SYMBOL voltage -256 -32 R0
WINDOW 123 0 0 Left 0
WINDOW 39 0 0 Left 0
SYMATTR InstName V1
SYMATTR Value 15
SYMBOL voltage -256 112 R0
WINDOW 123 0 0 Left 0
WINDOW 39 0 0 Left 0
SYMATTR InstName V2
SYMATTR Value 15
SYMBOL res 240 -160 R90
WINDOW 0 0 56 VBottom 2
WINDOW 3 32 56 VTop 2
SYMATTR InstName R5
SYMATTR Value 1.5k
SYMBOL OpAmps\\opamp2 176 -32 R0
SYMATTR InstName U2
SYMATTR Value UA741
SYMBOL res 448 160 R90
WINDOW 0 0 56 VBottom 2
WINDOW 3 32 56 VTop 2
SYMATTR InstName R1
SYMATTR Value 1k
SYMBOL cap 352 160 R90
WINDOW 0 0 32 VBottom 2
WINDOW 3 -55 39 VTop 2
SYMATTR InstName C1
SYMATTR Value 0.1µ
SYMBOL res 208 176 R0
SYMATTR InstName R2
SYMATTR Value 1k
SYMBOL cap 144 192 R0
WINDOW 3 -105 57 Left 2
SYMATTR Value 0.1µ
SYMATTR InstName C2
SYMBOL res 64 -96 R90
WINDOW 0 0 56 VBottom 2
WINDOW 3 32 56 VTop 2
SYMATTR InstName R3
SYMATTR Value 1k
SYMBOL diode 272 -112 R0
SYMATTR InstName D1
SYMBOL diode 400 -48 R180
WINDOW 0 24 64 Left 2
WINDOW 3 24 0 Left 2
SYMATTR InstName D2
SYMBOL res 448 -128 R0
SYMATTR InstName R4
SYMATTR Value 5k
SYMBOL voltage -64 96 R0
WINDOW 123 0 0 Left 0
WINDOW 39 0 0 Left 0
SYMATTR InstName V3
SYMATTR Value ""
SYMBOL res 864 144 R0
SYMATTR InstName R6
SYMATTR Value 100
SYMBOL e2 784 144 R0
SYMATTR InstName E1
SYMATTR Value -3
TEXT -312 344 Left 2 !.dc V3 -5 5 0.01
TEXT -312 384 Left 2 !.lib UA741.301
TEXT 48 384 Left 2 !.ic V(C2)=10V
